grid_TF_Wind/data/TYTFS2024_studyfiles/TYTFS2024_WP2033_V33.raw
0,   100.00, 33, 1, 1, 50.00     / PSS(R)E 33 RAW created by rawd33  FRI, OCT 03 2025   9:55
/ CASE: 2033/2034;  WINTER 31/12/2033; FORECAST STATEMENT 20
/ NEXT PLANET;  09:39:35  FRIDAY, OCTOBER 03, 2025 RATE 5
    10,'F_M         ',  38.0000,1,  11,  11,   1,1.05079, -11.1351,1.10000,0.90000,1.10000,0.90000
    11,'FMN LOOP    ',  38.0000,1,  11,  11,   1,1.06070,  -7.5982,1.10000,0.90000,1.10000,0.90000
    12,'BEDFORD ROW ',  38.0000,1,  11,  11,   1,1.05249, -12.3772,1.10000,0.90000,1.10000,0.90000
    13,'M_R         ',  38.0000,1,  11,  11,   1,1.07173, -12.5172,1.10000,0.90000,1.10000,0.90000
    14,'F_I         ',  38.0000,1,  11,  11,   1,1.08137, -10.0778,1.10000,0.90000,1.10000,0.90000
    15,'I_M         ',  38.0000,1,  11,  11,   1,1.08509, -10.0941,1.10000,0.90000,1.10000,0.90000
  1021,'ARDNACRUSHA ', 110.0000,1,   4,   4,   1,1.05000,   7.8654,1.10000,0.90000,1.10000,0.90000
  1031,'BALRUNTAGH  ', 110.0000,1,   7,   7,   1,1.05000,  -4.4736,1.10000,0.90000,1.10000,0.90000
  1041,'AGHADA      ', 110.0000,1,  10,  10,   2,1.05145,  13.9102,1.10000,0.90000,1.10000,0.90000
  1042,'AGHADA      ', 220.0000,1,  10,  10,   2,1.06000,  17.7960,1.10000,0.90000,1.10000,0.90000
  1052,'AGHADA_B    ', 220.0000,1,  10,  10,   2,1.06000,  17.7960,1.10000,0.90000,1.10000,0.90000
  1061,'ARIGNA      ', 110.0000,1,   1,   1,   3,1.05405,  -0.6000,1.10000,0.90000,1.10000,0.90000
  1062,'AGH_AT14    ', 220.0000,1,  10,  10,   9,1.06000,  17.7960,1.10000,0.90000,1.10000,0.90000
  1071,'AGANNYGAL   ', 110.0000,1,   4,   4,   3,1.05204,   8.8300,1.10000,0.90000,1.10000,0.90000
  1072,'AGHT2102    ', 220.0000,1,  10,  10,   2,1.05991,  17.7778,1.10000,0.90000,1.10000,0.90000
  1081,'AHANE       ', 110.0000,1,   8,   8,   2,1.04921,   8.3663,1.10000,0.90000,1.10000,0.90000
  1091,'ADAMSTOWN   ', 110.0000,1,  11,  11,   1,1.03960,  -8.4866,1.10000,0.90000,1.10000,0.90000
  1101,'ANNER       ', 110.0000,1,   8,   8,   6,1.05097,   6.6681,1.10000,0.90000,1.10000,0.90000
  1121,'ARKLOW      ', 110.0000,1,   9,   9,   3,1.03889,   1.9050,1.10000,0.90000,1.10000,0.90000
  1122,'ARKLOW      ', 220.0000,1,   9,   9,   3,1.04392,   2.7505,1.10000,0.90000,1.10000,0.90000
  1131,'ATHEA       ', 110.0000,1,   5,   5,  17,1.05000,  12.2227,1.10000,0.90000,1.10000,0.90000
  1141,'ATHLONE     ', 110.0000,1,   3,   3,   3,1.07361,   7.0873,1.10000,0.90000,1.10000,0.90000
  1151,'BALLINKNOCKA', 110.0000,1,   5,   5,  23,1.05033,  11.4519,1.10000,0.90000,1.10000,0.90000
  1161,'AUGHINISH   ', 110.0000,1,   5,   5,   2,1.05000,  11.6395,1.10000,0.90000,1.10000,0.90000
  1181,'ARVA        ', 110.0000,1,   7,   7,   3,1.04923,  -4.8669,1.10000,0.90000,1.10000,0.90000
  1201,'ARTANE      ', 110.0000,1,  11,  11,   1,1.04553,  -4.7277,1.10000,0.90000,1.10000,0.90000
  1211,'BALLYVOUSKIL', 110.0000,1,   5,   5,   3,1.05875,  14.0864,1.10000,0.90000,1.10000,0.90000
  1212,'BALLYVOUSKIL', 220.0000,1,   5,   5,   3,1.05762,  13.4385,1.10000,0.90000,1.10000,0.90000
  1221,'ATHY        ', 110.0000,1,  11,  11,   3,1.03063,   1.3390,1.10000,0.90000,1.10000,0.90000
  1231,'BALLYWATER  ', 110.0000,1,   9,   9,  17,1.04738,   5.3603,1.10000,0.90000,1.10000,0.90000
  1243,'CELTIC      ', 365.0000,2,  10,  10,   1,1.01547,  15.8571,1.10000,0.90000,1.10000,0.90000
  1244,'CELTIC      ', 380.0000,1,  10,  10,  49,1.05131,  15.8571,1.10000,0.90000,1.10000,0.90000
  1251,'BOOLTIAGH   ', 110.0000,1,   4,   4,  17,1.05571,   8.6748,1.10000,0.90000,1.10000,0.90000
  1261,'BALDONNELL  ', 110.0000,1,  11,  11,   7,1.03776,  -6.8820,1.10000,0.90000,1.10000,0.90000
  1271,'BALTRASNA   ', 110.0000,1,   7,   7,   2,1.03158,  -5.1728,1.10000,0.90000,1.10000,0.90000
  1281,'BALLYLICKEY ', 110.0000,1,   6,   6,   3,1.04880,  10.2152,1.10000,0.90000,1.10000,0.90000
  1301,'BALLYBEG    ', 110.0000,1,   9,   9,   2,1.03992,  -0.5456,1.10000,0.90000,1.10000,0.90000
  1311,'CORDAL      ', 110.0000,1,   5,   5,  17,1.05078,  13.6869,1.10000,0.90000,1.10000,0.90000
  1321,'BLAKE       ', 110.0000,1,  11,  11,   2,1.02351,  -4.3972,1.10000,0.90000,1.10000,0.90000
  1331,'BLUNDELSTOWN', 110.0000,1,  11,  11,  23,1.03981,  -4.8431,1.10000,0.90000,1.10000,0.90000
  1341,'BINBANE     ', 110.0000,1,   1,   1,   3,1.04461,  -8.1696,1.10000,0.90000,1.10000,0.90000
  1351,'BARODA      ', 110.0000,1,  11,  11,   6,1.02850,  -4.2353,1.10000,0.90000,1.10000,0.90000
  1361,'BALLYDINE   ', 110.0000,1,   8,   8,   3,1.04659,   7.3041,1.10000,0.90000,1.10000,0.90000
  1371,'BARNAGEERAGH', 110.0000,1,  11,  11,   7,1.03176,  -5.1610,1.10000,0.90000,1.10000,0.90000
  1381,'BARNAHELY   ', 110.0000,1,  10,  10,   2,1.05052,  12.8511,1.10000,0.90000,1.10000,0.90000
  1392,'CASTLELOST  ', 220.0000,1,   3,   3,   9,1.03693,   7.8053,1.10000,0.90000,1.10000,0.90000
  1401,'BELLACORICK ', 110.0000,1,   2,   2,   3,1.05000,   9.7037,1.10000,0.90000,1.10000,0.90000
  1411,'AIRTON      ', 110.0000,1,  11,  11,   7,1.05665,  -6.2379,1.10000,0.90000,1.10000,0.90000
  1421,'BLACKROCK   ', 110.0000,1,  11,  11,   1,1.04952,  -7.9235,1.10000,0.90000,1.10000,0.90000
  1431,'BALLYRAGGET ', 110.0000,1,   9,   9,   3,1.03314,   2.1014,1.10000,0.90000,1.10000,0.90000
  1441,'BANDON      ', 110.0000,1,   6,   6,   2,1.05627,  10.5669,1.10000,0.90000,1.10000,0.90000
  1451,'CLOGHRAN    ', 110.0000,1,  11,  11,   7,1.03174,  -5.1545,1.10000,0.90000,1.10000,0.90000
  1461,'BARRYMORE   ', 110.0000,1,   8,   8,   2,1.04384,  10.0418,1.10000,0.90000,1.10000,0.90000
  1471,'BELCAMP     ', 110.0000,1,  11,  11,   7,1.03907,  -4.6805,1.10000,0.90000,1.10000,0.90000
  1472,'BELCAMP     ', 220.0000,1,  11,  11,   7,1.05000,  -1.1818,1.10000,0.90000,1.10000,0.90000
  1474,'BELCAMP     ', 380.0000,1,  11,  11,   7,1.05379,   2.6617,1.10000,0.90000,1.10000,0.90000
  1481,'BUTLERSTOWN ', 110.0000,1,  12,  12,   3,1.04563,   8.7714,1.10000,0.90000,1.10000,0.90000
  1491,'DEENES      ', 110.0000,1,   7,   7,   1,1.03222,  -4.9650,1.10000,0.90000,1.10000,0.90000
  1501,'BRINNY      ', 110.0000,1,   6,   6,   6,1.05615,  10.5587,1.10000,0.90000,1.10000,0.90000
  1511,'CLOGHBOOLA  ', 110.0000,1,   5,   5,  17,1.05052,  12.3470,1.10000,0.90000,1.10000,0.90000
  1521,'BOGTOWN     ', 110.0000,1,  11,  11,  17,1.05000,  -2.7901,1.10000,0.90000,1.10000,0.90000
  1522,'CLONEE      ', 220.0000,1,  11,  11,   7,1.05482,  -1.0266,1.10000,0.90000,1.10000,0.90000
  1531,'BALLYADAM   ', 110.0000,1,   9,   9,   3,1.03573,  12.6848,1.10000,0.90000,1.10000,0.90000
  1541,'BANOGE      ', 110.0000,1,   9,   9,   3,1.02898,   3.9773,1.10000,0.90000,1.10000,0.90000
  1551,'BOGGERAGH   ', 110.0000,1,   5,   5,  17,1.05000,  12.2300,1.10000,0.90000,1.10000,0.90000
  1561,'COOLDERRIG  ', 110.0000,1,  11,  11,   7,1.03937,  -8.5936,1.10000,0.90000,1.10000,0.90000
  1571,'ARDNAGAPPARY', 110.0000,1,   1,   1,   3,1.03344, -10.0205,1.10000,0.90000,1.10000,0.90000
  1581,'CABRA       ', 110.0000,1,  11,  11,   1,1.04483,  -4.7788,1.10000,0.90000,1.10000,0.90000
  1591,'CLONFAD     ', 110.0000,1,  11,  11,   3,1.03320,  -3.2015,1.10000,0.90000,1.10000,0.90000
  1601,'CLASHAVOON  ', 110.0000,1,   5,   5,   3,1.05185,  11.8446,1.10000,0.90000,1.10000,0.90000
  1602,'CLASHAVOON  ', 220.0000,1,   5,   5,   3,1.05377,  13.5621,1.10000,0.90000,1.10000,0.90000
  1611,'CLONKEEN    ', 110.0000,1,   5,   5,   3,1.04379,   9.4810,1.10000,0.90000,1.10000,0.90000
  1621,'COOLROE     ', 110.0000,1,  10,  10,   2,1.04474,  11.2067,1.10000,0.90000,1.10000,0.90000
  1631,'CORDERRY    ', 110.0000,1,   1,   1,   3,1.05474,  -0.7224,1.10000,0.90000,1.10000,0.90000
  1641,'CASHLA      ', 110.0000,1,   2,   2,   2,1.07001,   5.1066,1.10000,0.90000,1.10000,0.90000
  1642,'CASHLA      ', 220.0000,1,   2,   2,   2,1.06550,   6.7809,1.10000,0.90000,1.10000,0.90000
  1651,'CLAHANE     ', 110.0000,1,   5,   5,  17,1.05148,   8.6791,1.10000,0.90000,1.10000,0.90000
  1661,'CASTLEBAR   ', 110.0000,1,   2,   2,   3,1.06738,   4.1517,1.10000,0.90000,1.10000,0.90000
  1671,'KILCUMBER   ', 110.0000,1,  11,  11,  17,1.03251,  -2.1836,1.10000,0.90000,1.10000,0.90000
  1681,'CARRIGADROHI', 110.0000,1,   6,   6,  21,1.05045,  11.6461,1.10000,0.90000,1.10000,0.90000
  1691,'CENTRAL PARK', 110.0000,1,  11,  11,   1,1.05155,  -4.0974,1.10000,0.90000,1.10000,0.90000
  1701,'CATH_FALL   ', 110.0000,1,   1,   1,   3,1.05000,  -5.5369,1.10000,0.90000,1.10000,0.90000
  1711,'CROMCASTLE  ', 110.0000,1,  11,  11,   1,1.04831,  -5.3447,1.10000,0.90000,1.10000,0.90000
  1721,'CAHIR       ', 110.0000,1,   8,   8,   3,1.06147,   7.0801,1.10000,0.90000,1.10000,0.90000
  1731,'CROMCASTLE  ', 110.0000,1,  11,  11,   1,1.04831,  -5.3447,1.10000,0.90000,1.10000,0.90000
  1741,'CARRICKMINES', 110.0000,1,  11,  11,   2,1.05158,  -4.0472,1.10000,0.90000,1.10000,0.90000
  1742,'CARRICKMINES', 220.0000,1,  11,  11,   2,1.05242,  -1.7330,1.10000,0.90000,1.10000,0.90000
  1751,'COOMNACLOHY ', 110.0000,1,   5,   5,   1,1.05775,  14.1625,1.10000,0.90000,1.10000,0.90000
  1761,'CLIFF       ', 110.0000,1,   1,   1,  13,1.05082,  -5.3420,1.10000,0.90000,1.10000,0.90000
  1781,'CASTLEFARM  ', 110.0000,1,   5,   5,   6,1.04949,  11.6205,1.10000,0.90000,1.10000,0.90000
  1791,'BRACKLONE   ', 110.0000,1,  11,  11,   2,1.03012,  -1.2935,1.10000,0.90000,1.10000,0.90000
  1801,'COOKSTOWN   ', 110.0000,1,  11,  11,   2,1.04487,  -3.4081,1.10000,0.90000,1.10000,0.90000
  1810,'DARNDALE    ', 110.0000,1,  11,  11,   7,1.03871,  -4.7472,1.10000,0.90000,1.10000,0.90000
  1811,'CLUTTERLAND ', 110.0000,1,  11,  11,   7,1.03779,  -6.8639,1.10000,0.90000,1.10000,0.90000
  1821,'CLOON       ', 110.0000,1,   2,   2,   2,1.05515,   3.7846,1.10000,0.90000,1.10000,0.90000
  1831,'SCREEB      ', 110.0000,1,   2,   2,   3,1.07952,   2.7269,1.10000,0.90000,1.10000,0.90000
  1841,'CRANE       ', 110.0000,1,   9,   9,   3,1.04323,   5.3809,1.10000,0.90000,1.10000,0.90000
  1851,'CHERRYWOOD  ', 110.0000,1,  11,  11,   6,1.05067,  -4.1522,1.10000,0.90000,1.10000,0.90000
  1861,'CARRICK ON S', 110.0000,1,   3,   3,   3,1.05350,  -0.2832,1.10000,0.90000,1.10000,0.90000
  1871,'COLLEGE PARK', 110.0000,1,  11,  11,   1,1.03220,  -5.1003,1.10000,0.90000,1.10000,0.90000
  1881,'CHARLEVILLE ', 110.0000,1,   5,   5,   2,1.05000,   8.3351,1.10000,0.90000,1.10000,0.90000
  1901,'CARLOW      ', 110.0000,1,   9,   9,   3,1.04327,   1.6905,1.10000,0.90000,1.10000,0.90000
  1911,'CUILLEEN    ', 110.0000,1,   3,   3,   9,1.07500,   7.2581,1.10000,0.90000,1.10000,0.90000
  1921,'COW CROSS   ', 110.0000,1,  10,  10,   2,1.04783,  12.7917,1.10000,0.90000,1.10000,0.90000
  1931,'CUNGHILL    ', 110.0000,1,   2,   2,   3,1.05807,   1.6474,1.10000,0.90000,1.10000,0.90000
  1941,'CUSHALING   ', 110.0000,1,  11,  11,  12,1.03261,  -2.1883,1.10000,0.90000,1.10000,0.90000
  1951,'CARROWBEG   ', 110.0000,1,   2,   2,   3,1.06120,   3.3901,1.10000,0.90000,1.10000,0.90000
  1961,'CASTLEVIEW  ', 110.0000,1,  10,  10,   2,1.04244,  12.2277,1.10000,0.90000,1.10000,0.90000
  1971,'COOMAGEARLAH', 110.0000,1,   5,   5,  17,1.05703,  14.3415,1.10000,0.90000,1.10000,0.90000
  1981,'CORRACLASSY ', 110.0000,1,   1,   1,   3,1.04801,  -6.4950,1.10000,0.90000,1.10000,0.90000
  1991,'CASTLEDOCKRE', 110.0000,1,   9,   9,  17,1.05000,   5.9286,1.10000,0.90000,1.10000,0.90000
  2001,'CULLENAGH   ', 110.0000,1,  12,  12,   3,1.04893,   9.3242,1.10000,0.90000,1.10000,0.90000
  2002,'CULLENAGH   ', 220.0000,1,  12,  12,   3,1.05474,  12.6316,1.10000,0.90000,1.10000,0.90000
  2011,'CORBETSTOWN ', 110.0000,1,  11,  11,  23,1.05010,  -3.2429,1.10000,0.90000,1.10000,0.90000
  2021,'CITY WEST   ', 110.0000,1,  11,  11,   2,1.02089,  -9.7626,1.10000,0.90000,1.10000,0.90000
  2041,'CORDUFF     ', 110.0000,1,  11,  11,   1,1.03238,  -5.0322,1.10000,0.90000,1.10000,0.90000
  2042,'CORDUFF     ', 220.0000,1,  11,  11,   1,1.05036,  -1.1827,1.10000,0.90000,1.10000,0.90000
  2052,'CORDUFFB    ', 220.0000,1,  11,  11,   1,1.05036,  -1.1827,1.10000,0.90000,1.10000,0.90000
  2061,'CASTLETREASU', 110.0000,1,  10,  10,  23,1.06449,  12.8684,1.10000,0.90000,1.10000,0.90000
  2072,'CRUISERATH  ', 220.0000,1,  11,  11,   7,1.05000,  -1.1850,1.10000,0.90000,1.10000,0.90000
  2090,'KNOCKRANNY A', 110.0000,1,   2,   2,  25,1.05921,   4.7245,1.10000,0.90000,1.10000,0.90000
  2091,'KNOCKRANNY  ', 110.0000,1,   2,   2,   3,1.08612,   3.8868,1.10000,0.90000,1.10000,0.90000
  2101,'DUNDALK     ', 110.0000,1,   7,   7,   3,1.04557,  -4.7371,1.10000,0.90000,1.10000,0.90000
  2111,'UGGOOL      ', 110.0000,1,   2,   2,  17,1.05725,   4.7786,1.10000,0.90000,1.10000,0.90000
  2121,'DRUMLINE    ', 110.0000,1,   4,   4,   2,1.05591,   6.7861,1.10000,0.90000,1.10000,0.90000
  2131,'DROMADA     ', 110.0000,1,   5,   5,  17,1.05000,  12.2316,1.10000,0.90000,1.10000,0.90000
  2141,'DUNGARVAN   ', 110.0000,1,  12,  12,   3,1.03464,   9.3605,1.10000,0.90000,1.10000,0.90000
  2151,'DROMBEG     ', 110.0000,1,   5,   5,   3,1.04692,   9.6553,1.10000,0.90000,1.10000,0.90000
  2161,'DOON        ', 110.0000,1,   8,   8,   3,1.05183,   6.7071,1.10000,0.90000,1.10000,0.90000
  2171,'KNOCKALOUGH ', 110.0000,1,   2,   2,  18,1.08693,   3.9044,1.10000,0.90000,1.10000,0.90000
  2181,'DRYBRIDGE   ', 110.0000,1,   7,   7,   2,1.03785,  -4.9813,1.10000,0.90000,1.10000,0.90000
  2191,'DONORE      ', 110.0000,1,   7,   7,   1,1.04026,  -4.7666,1.10000,0.90000,1.10000,0.90000
  2202,'DUNSTOWN    ', 220.0000,1,  11,  11,   1,1.05241,   0.7808,1.10000,0.90000,1.10000,0.90000
  2204,'DUNSTOWN    ', 380.0000,1,  11,  11,   1,1.05167,   3.5476,1.10000,0.90000,1.10000,0.90000
  2211,'DENNISTOWN  ', 110.0000,1,   9,   9,  23,1.03522,   6.4149,1.10000,0.90000,1.10000,0.90000
  2212,'DUNSTOWN    ', 220.0000,1,  11,  11,   1,1.05167,   3.5476,1.10000,0.90000,1.10000,0.90000
  2221,'DUNMANWAY   ', 110.0000,1,   6,   6,   3,1.05178,  10.6244,1.10000,0.90000,1.10000,0.90000
  2225,'DUNMANWAY   ', 110.0000,1,   6,   6,   3,1.05178,  10.6244,1.10000,0.90000,1.10000,0.90000
  2231,'DERRYBRIEN  ', 110.0000,1,   4,   4,  17,1.05000,   8.9824,1.10000,0.90000,1.10000,0.90000
  2241,'DALLOW      ', 110.0000,1,   8,   8,   3,1.03556,   8.3779,1.10000,0.90000,1.10000,0.90000
  2251,'DARDISTOWN  ', 110.0000,1,  11,  11,   6,1.04869,  -5.3209,1.10000,0.90000,1.10000,0.90000
  2261,'DERRYIRON   ', 110.0000,1,  11,  11,  11,1.05000,  -3.2480,1.10000,0.90000,1.10000,0.90000
  2271,'DERRYLAHAN  ', 110.0000,1,   3,   3,  23,1.05821,  10.4169,1.10000,0.90000,1.10000,0.90000
  2281,'DALTON_A1   ', 110.0000,1,   2,   2,   3,1.07144,   3.5152,1.10000,0.90000,1.10000,0.90000
  2301,'DUNFIRTH    ', 110.0000,1,  11,  11,   2,1.02341,  -4.1842,1.10000,0.90000,1.10000,0.90000
  2312,'DERRYGREENAG', 220.0000,1,  11,  11,   1,1.06749,   5.5419,1.10000,0.90000,1.10000,0.90000
  2321,'DRUMKEEN    ', 110.0000,1,   1,   1,   3,1.04424, -10.8725,1.10000,0.90000,1.10000,0.90000
  2331,'FERRY VIEW  ', 110.0000,1,   2,   2,  21,1.08571,   3.8964,1.10000,0.90000,1.10000,0.90000
  2341,'CAHERHURLY  ', 110.0000,1,   4,   4,   1,1.04759,   8.0070,1.10000,0.90000,1.10000,0.90000
  2351,'EFFERNOGE   ', 110.0000,1,   9,   9,   1,1.04612,   5.5684,1.10000,0.90000,1.10000,0.90000
  2361,'ENNIS       ', 110.0000,1,   4,   4,   2,1.05441,   6.8445,1.10000,0.90000,1.10000,0.90000
  2391,'KILL HILL   ', 110.0000,1,   8,   8,  17,1.05218,   7.3213,1.10000,0.90000,1.10000,0.90000
  2401,'MOUNT LUCAS ', 110.0000,1,  11,  11,  17,1.04850,  -2.8048,1.10000,0.90000,1.10000,0.90000
  2421,'CORKAGH     ', 110.0000,1,  11,  11,   7,1.03772,  -6.8886,1.10000,0.90000,1.10000,0.90000
  2441,'BELLEWSTOWN ', 110.0000,1,   7,   7,   1,1.04620,  -4.0301,1.10000,0.90000,1.10000,0.90000
  2481,'FASS EAST   ', 110.0000,1,  11,  11,   2,1.04123,  -3.6093,1.10000,0.90000,1.10000,0.90000
  2491,'FASS WEST   ', 110.0000,1,  11,  11,   2,1.04147,  -3.5871,1.10000,0.90000,1.10000,0.90000
  2521,'FLAGFORD    ', 110.0000,1,   2,   2,   3,1.05573,   0.0325,1.10000,0.90000,1.10000,0.90000
  2522,'FLAGFORD    ', 220.0000,1,   2,   2,   3,1.05629,   1.3811,1.10000,0.90000,1.10000,0.90000
  2541,'FRN ST A    ', 110.0000,1,  11,  11,   1,1.05129,  -7.9280,1.10000,0.90000,1.10000,0.90000
  2551,'FRN ST B    ', 110.0000,1,  11,  11,   1,1.05737,  -6.1702,1.10000,0.90000,1.10000,0.90000
  2561,'FIN_URBAN   ', 110.0000,1,  11,  11,   1,1.04698,  -4.5257,1.10000,0.90000,1.10000,0.90000
  2562,'FINGLAS     ', 220.0000,1,  11,  11,   1,1.05000,  -1.2159,1.10000,0.90000,1.10000,0.90000
  2563,'FINGLAS220B ', 220.0000,1,  11,  11,   1,1.05000,  -1.2159,1.10000,0.90000,1.10000,0.90000
  2571,'FIN_RURAL   ', 110.0000,1,  11,  11,   1,1.04886,  -5.1559,1.10000,0.90000,1.10000,0.90000
  2581,'FINGLAS B5  ', 110.0000,1,  11,  11,   1,1.03230,  -5.1246,1.10000,0.90000,1.10000,0.90000
  2591,'FORTUNESTOWN', 110.0000,1,  11,  11,   1,1.01981,  -9.7900,1.10000,0.90000,1.10000,0.90000
  2601,'FIRLOUGH    ', 110.0000,1,   2,   2,   3,1.06132,   5.4408,1.10000,0.90000,1.10000,0.90000
  2641,'GRAHOMICK   ', 110.0000,1,   9,   9,  23,1.03397,   6.4938,1.10000,0.90000,1.10000,0.90000
  2651,'GARRINTAGGAR', 110.0000,1,   3,   3,  17,1.02960,   2.0945,1.10000,0.90000,1.10000,0.90000
  2661,'AGHALEAGUE  ', 110.0000,1,   1,   1,  23,1.05442,  -0.5964,1.10000,0.90000,1.10000,0.90000
  2671,'GARVAGH     ', 110.0000,1,   1,   1,   3,1.05442,  -0.5969,1.10000,0.90000,1.10000,0.90000
  2681,'GILRA       ', 110.0000,1,   3,   3,   6,1.05764,  -0.2723,1.10000,0.90000,1.10000,0.90000
  2691,'GARBALLAGH  ', 110.0000,1,   7,   7,  23,1.04235,  -4.1992,1.10000,0.90000,1.10000,0.90000
  2701,'GLASMORE    ', 110.0000,1,  11,  11,   2,1.02690,  -6.5488,1.10000,0.90000,1.10000,0.90000
  2712,'GLANSILLAGH ', 220.0000,1,   5,   5,   1,1.04880,  11.9433,1.10000,0.90000,1.10000,0.90000
  2721,'GRIFFINRATH ', 110.0000,1,  11,  11,   2,1.04411,  -3.7240,1.10000,0.90000,1.10000,0.90000
  2731,'GLANLEE     ', 110.0000,1,   5,   5,  17,1.05702,  14.3449,1.10000,0.90000,1.10000,0.90000
  2741,'GREAT ISLAND', 110.0000,1,   9,   9,   3,1.05274,   9.4909,1.10000,0.90000,1.10000,0.90000
  2742,'GREAT ISLAND', 220.0000,1,   9,   9,   3,1.06000,  12.7766,1.10000,0.90000,1.10000,0.90000
  2761,'GRANGE      ', 110.0000,1,  11,  11,   1,1.04743,  -5.4052,1.10000,0.90000,1.10000,0.90000
  2771,'GARROW      ', 110.0000,1,   5,   5,  17,1.05957,  14.0895,1.10000,0.90000,1.10000,0.90000
  2781,'GALWAY      ', 110.0000,1,   2,   2,   1,1.06744,   4.3750,1.10000,0.90000,1.10000,0.90000
  2791,'GALLANSTOWN ', 110.0000,1,  11,  11,  23,1.03158,  -4.4422,1.10000,0.90000,1.10000,0.90000
  2801,'GOLAGH      ', 110.0000,1,   1,   1,  17,1.05127,  -7.6838,1.10000,0.90000,1.10000,0.90000
  2821,'GORTAWEE    ', 110.0000,1,   1,   1,   3,1.04764,  -6.5411,1.10000,0.90000,1.10000,0.90000
  2841,'GORMAN      ', 110.0000,1,   7,   7,   3,1.03709,  -4.6892,1.10000,0.90000,1.10000,0.90000
  2842,'GORMAN      ', 220.0000,1,   7,   7,   3,1.04463,  -2.0576,1.10000,0.90000,1.10000,0.90000
  2852,'GLANAGOW    ', 220.0000,1,  10,  10,   9,1.06000,  17.8752,1.10000,0.90000,1.10000,0.90000
  2861,'GRANGE CASTL', 110.0000,1,  11,  11,   1,1.03945,  -8.5693,1.10000,0.90000,1.10000,0.90000
  2870,'CLOGHER     ', 110.0000,1,   1,   1,   3,1.05000,  -7.7040,1.10000,0.90000,1.10000,0.90000
  2871,'CLOGHER     ', 110.0000,1,   1,   1,   3,1.05000,  -7.7040,1.10000,0.90000,1.10000,0.90000
  2881,'GLENLARA    ', 110.0000,1,   5,   5,   3,1.04071,   7.7385,1.10000,0.90000,1.10000,0.90000
  2892,'GLENCLOOSAGH', 220.0000,1,   5,   5,   3,1.05208,  11.4356,1.10000,0.90000,1.10000,0.90000
  2921,'HARRISTOWN  ', 110.0000,1,  11,  11,  23,1.03611,  -3.5098,1.10000,0.90000,1.10000,0.90000
  2931,'WALTERSTOWN ', 110.0000,1,  11,  11,   1,1.01971,  -4.8785,1.10000,0.90000,1.10000,0.90000
  2941,'HAROLDS CROS', 110.0000,1,  11,  11,   1,1.05142,  -7.9028,1.10000,0.90000,1.10000,0.90000
  2951,'HEUSTON SQUA', 110.0000,1,  11,  11,   1,1.05751,  -6.1498,1.10000,0.90000,1.10000,0.90000
  2962,'HUNTSTOWN   ', 220.0000,1,  11,  11,   9,1.05051,  -1.1323,1.10000,0.90000,1.10000,0.90000
  2972,'HUNTSTOWN 2 ', 220.0000,1,  11,  11,   9,1.05022,  -1.1492,1.10000,0.90000,1.10000,0.90000
...
0 / END OF BUS DATA, BEGIN LOAD DATA
    10,'LD',1,  11,   1,    85.610,     2.100,     0.000,     0.000,     0.000,     0.000,   2,1,0
    11,'LD',1,  11,   1,    39.100,     0.260,     0.000,     0.000,     0.000,     0.000,   2,1,0
    12,'LD',1,  11,   1,    56.690,     0.090,     0.000,     0.000,     0.000,     0.000,   2,1,0
    13,'LD',1,  11,   1,    60.950,    -1.220,     0.000,     0.000,     0.000,     0.000,   2,1,0
    14,'LD',1,  11,   1,    56.150,     1.390,     0.000,     0.000,     0.000,     0.000,   2,1,0
    15,'LD',1,  11,   1,    64.390,    -3.970,     0.000,     0.000,     0.000,     0.000,   2,1,0
  1101,'I ',1,   8,   2,    14.000,     6.900,     0.000,     0.000,     0.000,     0.000,   5,0,0
  1101,'MI',0,   8,   2,     1.330,     0.100,     0.000,     0.000,     0.000,     0.000,   5,0,0
  4341,'I ',1,  10,   2,     0.300,     0.100,     0.000,     0.000,     0.000,     0.000,   5,0,0
 10204,'LD',1,   4,   1,    47.190,     5.430,     0.000,     0.000,     0.000,     0.000,   2,1,0
 10205,'LD',1,   4,   1,    34.250,     1.220,     0.000,     0.000,     0.000,     0.000,   2,1,0
 10602,'LD',1,   1,   1,     5.530,     0.030,     0.000,     0.000,     0.000,     0.000,   2,1,0
 10801,'LD',1,   8,   1,     5.760,     0.100,     0.000,     0.000,     0.000,     0.000,   2,1,0
 10902,'I ',1,  11,   2,     9.500,     3.120,     0.000,     0.000,     0.000,     0.000,   5,0,0
 10902,'LD',1,  11,   1,    10.860,     1.090,     0.000,     0.000,     0.000,     0.000,   2,1,0
 10902,'MI',0,  11,   2,     0.500,     0.000,     0.000,     0.000,     0.000,     0.000,   5,0,0
 11201,'LD',1,   9,   1,    10.710,     0.780,     0.000,     0.000,     0.000,     0.000,   2,1,0
 11204,'LD',1,   9,   1,    35.850,    -3.480,     0.000,     0.000,     0.000,     0.000,   2,1,0
 11404,'LD',1,   3,   1,    85.060,     8.810,     0.000,     0.000,     0.000,     0.000,   2,1,0
 12001,'LD',1,  11,   1,    19.760,     0.000,     0.000,     0.000,     0.000,     0.000,   2,1,0
 12201,'LD',1,  11,   1,    25.220,     4.930,     0.000,     0.000,     0.000,     0.000,   2,1,0
 12702,'LD',1,   7,   1,    17.590,    -0.740,     0.000,     0.000,     0.000,     0.000,   2,1,0
 12804,'LD',1,   6,   1,    14.720,     1.190,     0.000,     0.000,     0.000,     0.000,   2,1,0
 13001,'LD',1,   9,   1,    17.710,    -0.160,     0.000,     0.000,     0.000,     0.000,   2,1,0
 13204,'LD',1,  11,   1,    29.530,     1.380,     0.000,     0.000,     0.000,     0.000,   2,1,0
 13302,'I ',1,  11,   2,     9.500,     3.120,     0.000,     0.000,     0.000,     0.000,   5,0,0
 13302,'MI',0,  11,   2,     6.000,     1.880,     0.000,     0.000,     0.000,     0.000,   5,0,0
 13404,'LD',1,   1,   1,    21.020,     0.150,     0.000,     0.000,     0.000,     0.000,   2,1,0
 13501,'I ',1,  11,   2,     5.260,     0.820,     0.000,     0.000,     0.000,     0.000,   5,0,0
 13501,'MI',0,  11,   2,     4.240,     2.180,     0.000,     0.000,     0.000,     0.000,   5,0,0
 13601,'I ',1,   8,   2,     5.990,     1.670,     0.000,     0.000,     0.000,     0.000,   5,0,0
 13601,'MI',0,   8,   2,     3.220,     1.330,     0.000,     0.000,     0.000,     0.000,   5,0,0
 13604,'LD',1,   8,   1,    12.060,     2.060,     0.000,     0.000,     0.000,     0.000,   2,1,0
 13702,'I ',1,  11,   2,    35.780,     3.940,     0.000,     0.000,     0.000,     0.000,   5,0,0
 13702,'MI',0,  11,   2,     5.960,     0.650,     0.000,     0.000,     0.000,     0.000,   5,0,0
 13802,'LD',1,  10,   1,    28.980,     4.630,     0.000,     0.000,     0.000,     0.000,   2,1,0
 13804,'LD',1,  10,   1,     9.660,     1.540,     0.000,     0.000,     0.000,     0.000,   2,1,0
 13812,'LD',1,  10,   1,     5.370,     0.860,     0.000,     0.000,     0.000,     0.000,   2,1,0
 14004,'LD',1,   2,   1,     5.910,    -0.490,     0.000,     0.000,     0.000,     0.000,   2,1,0
 14102,'I ',1,  11,   2,    59.940,     2.680,     0.000,     0.000,     0.000,     0.000,   5,0,0
 14102,'MI',0,  11,   2,     6.560,     0.300,     0.000,     0.000,     0.000,     0.000,   5,0,0
 14204,'LD',1,  11,   1,    70.200,    20.080,     0.000,     0.000,     0.000,     0.000,   2,1,0
 14304,'LD',1,   9,   1,    26.510,     5.760,     0.000,     0.000,     0.000,     0.000,   2,1,0
 14401,'LD',1,   6,   1,    13.670,     1.650,     0.000,     0.000,     0.000,     0.000,   2,1,0
 14404,'LD',1,   6,   1,    38.900,     5.490,     0.000,     0.000,     0.000,     0.000,   2,1,0
 14502,'I ',1,  11,   2,    71.000,     9.500,     0.000,     0.000,     0.000,     0.000,   5,0,0
 14502,'MI',0,  11,   2,    14.500,     2.050,     0.000,     0.000,     0.000,     0.000,   5,0,0
 14604,'LD',1,   8,   1,    35.340,     2.530,     0.000,     0.000,     0.000,     0.000,   2,1,0
 14804,'LD',1,  12,   1,    47.500,     4.900,     0.000,     0.000,     0.000,     0.000,   2,1,0
 15001,'I ',1,   6,   2,     3.950,     0.980,     0.000,     0.000,     0.000,     0.000,   5,0,0
 15001,'MI',0,   6,   2,     2.220,     1.020,     0.000,     0.000,     0.000,     0.000,   5,0,0
 15202,'I ',1,  11,   2,   134.720,     8.530,     0.000,     0.000,     0.000,     0.000,   5,0,0
 15202,'MI',0,  11,   2,    14.970,     0.950,     0.000,     0.000,     0.000,     0.000,   5,0,0
 15402,'LD',1,   9,   1,     8.690,     0.000,     0.000,     0.000,     0.000,     0.000,   2,1,0
 15602,'I ',1,  11,   2,    38.000,     0.000,     0.000,     0.000,     0.000,     0.000,   5,0,0
 15602,'MI',0,  11,   2,     7.000,     0.000,     0.000,     0.000,     0.000,     0.000,   5,0,0
 15704,'LD',1,   1,   1,    10.860,     2.170,     0.000,     0.000,     0.000,     0.000,   2,1,0
 15801,'LD',1,  11,   1,    14.840,     4.290,     0.000,     0.000,     0.000,     0.000,   2,1,0
 16202,'LD',1,  10,   1,    12.230,     0.000,     0.000,     0.000,     0.000,     0.000,   2,1,0
 16604,'LD',1,   2,   1,    33.530,     2.670,     0.000,     0.000,     0.000,     0.000,   2,1,0
 16901,'LD',1,  11,   1,    10.860,    -0.550,     0.000,     0.000,     0.000,     0.000,   2,1,0
 17004,'LD',1,   1,   1,    19.140,     4.420,     0.000,     0.000,     0.000,     0.000,   2,1,0
 17204,'LD',1,   8,   1,    30.190,     4.020,     0.000,     0.000,     0.000,     0.000,   2,1,0
 17404,'LD',1,  11,   1,    76.040,     3.120,     0.000,     0.000,     0.000,     0.000,   2,1,0
 17802,'I ',1,   5,   2,    50.800,    24.520,     0.000,     0.000,     0.000,     0.000,   5,0,0
 18001,'LD',1,  11,   1,    16.810,     1.300,     0.000,     0.000,     0.000,     0.000,   2,1,0
 18004,'LD',1,  11,   1,    68.190,    19.870,     0.000,     0.000,     0.000,     0.000,   2,1,0
 18101,'I ',1,  11,   2,   121.000,    13.230,     0.000,     0.000,     0.000,     0.000,   5,0,0
 18101,'MI',0,  11,   2,    20.150,     2.300,     0.000,     0.000,     0.000,     0.000,   5,0,0
 18102,'I ',1,  11,   2,   115.770,     7.330,     0.000,     0.000,     0.000,     0.000,   5,0,0
 18102,'MI',0,  11,   2,     8.980,     0.570,     0.000,     0.000,     0.000,     0.000,   5,0,0
 18204,'LD',1,   2,   1,    30.680,     4.560,     0.000,     0.000,     0.000,     0.000,   2,1,0
 18304,'LD',1,   2,   1,    22.740,     0.710,     0.000,     0.000,     0.000,     0.000,   2,1,0
 18402,'LD',1,   9,   1,    14.400,     0.610,     0.000,     0.000,     0.000,     0.000,   2,1,0
 18404,'LD',1,   9,   1,    29.210,     3.310,     0.000,     0.000,     0.000,     0.000,   2,1,0
 18504,'LD',1,  11,   1,    24.940,     0.450,     0.000,     0.000,     0.000,     0.000,   2,1,0
 18604,'LD',1,   3,   1,    33.400,     2.390,     0.000,     0.000,     0.000,     0.000,   2,1,0
 18701,'LD',1,  11,   1,    25.900,     0.900,     0.000,     0.000,     0.000,     0.000,   2,1,0
 18804,'LD',1,   5,   1,    24.260,     4.010,     0.000,     0.000,     0.000,     0.000,   2,1,0
 19004,'LD',1,   9,   1,    73.630,     6.510,     0.000,     0.000,     0.000,     0.000,   2,1,0
 19204,'LD',1,  10,   1,    18.470,     0.880,     0.000,     0.000,     0.000,     0.000,   2,1,0
 19504,'LD',1,   2,   1,    19.120,     1.640,     0.000,     0.000,     0.000,     0.000,   2,1,0
 19601,'LD',1,  10,   1,    32.250,     2.870,     0.000,     0.000,     0.000,     0.000,   2,1,0
 20201,'LD',1,  11,   1,    15.100,     4.380,     0.000,     0.000,     0.000,     0.000,   2,1,0
 20402,'LD',1,  11,   1,    37.530,     4.740,     0.000,     0.000,     0.000,     0.000,   2,1,0
 20701,'I ',1,  11,   2,   171.830,     7.690,     0.000,     0.000,     0.000,     0.000,   5,0,0
 20701,'MI',0,  11,   2,    67.920,     3.040,     0.000,     0.000,     0.000,     0.000,   5,0,0
 21004,'LD',1,   7,   1,    67.460,     4.670,     0.000,     0.000,     0.000,     0.000,   2,1,0
 21204,'LD',1,   4,   1,    29.750,     4.460,     0.000,     0.000,     0.000,     0.000,   2,1,0
 21404,'LD',1,  12,   1,    51.860,     5.290,     0.000,     0.000,     0.000,     0.000,   2,1,0
 21604,'LD',1,   8,   1,    31.920,     3.730,     0.000,     0.000,     0.000,     0.000,   2,1,0
 21804,'LD',1,   7,   1,    95.400,     3.930,     0.000,     0.000,     0.000,     0.000,   2,1,0
 21904,'I ',1,   7,   2,     9.500,     3.120,     0.000,     0.000,     0.000,     0.000,   5,0,0
 21904,'LD',1,   7,   1,     5.430,     1.090,     0.000,     0.000,     0.000,     0.000,   2,1,0
 21904,'MI',0,   7,   2,     4.000,     1.320,     0.000,     0.000,     0.000,     0.000,   5,0,0
 22208,'LD',1,   6,   1,    39.680,     3.850,     0.000,     0.000,     0.000,     0.000,   2,1,0
 22404,'LD',1,   8,   1,    21.830,     2.010,     0.000,     0.000,     0.000,     0.000,   2,1,0
 22501,'LD',1,  11,   1,    10.860,     2.510,     0.000,     0.000,     0.000,     0.000,   2,1,0
 22804,'LD',1,   2,   1,    32.740,     4.330,     0.000,     0.000,     0.000,     0.000,   2,1,0
 23002,'LD',1,  11,   1,    11.320,     0.020,     0.000,     0.000,     0.000,     0.000,   2,1,0
 23601,'LD',1,   4,   1,    15.210,     1.090,     0.000,     0.000,     0.000,     0.000,   2,1,0
 23604,'LD',1,   4,   1,    57.700,     6.420,     0.000,     0.000,     0.000,     0.000,   2,1,0
 24202,'I ',1,  11,   2,   155.840,     6.970,     0.000,     0.000,     0.000,     0.000,   5,0,0
 24202,'MI',0,  11,   2,    27.970,     1.260,     0.000,     0.000,     0.000,     0.000,   5,0,0
 24804,'LD',1,  11,   1,    66.810,     0.170,     0.000,     0.000,     0.000,     0.000,   2,1,0
 25604,'LD',1,  11,   1,    41.040,    -0.870,     0.000,     0.000,     0.000,     0.000,   2,1,0
 25901,'LD',1,  11,   1,    17.020,     0.540,     0.000,     0.000,     0.000,     0.000,   2,1,0
 26802,'I ',1,   3,   2,    11.420,     2.830,     0.000,     0.000,     0.000,     0.000,   5,0,0
 27004,'LD',1,  11,   1,    77.800,    22.150,     0.000,     0.000,     0.000,     0.000,   2,1,0
 27204,'LD',1,  11,   1,    56.490,    -1.860,     0.000,     0.000,     0.000,     0.000,   2,1,0
 27404,'LD',1,   9,   1,    22.270,     3.700,     0.000,     0.000,     0.000,     0.000,   2,1,0
 27604,'LD',1,  11,   1,    64.840,    13.870,     0.000,     0.000,     0.000,     0.000,   2,1,0
 27801,'LD',1,   2,   1,    14.920,     0.810,     0.000,     0.000,     0.000,     0.000,   2,1,0
 27804,'LD',1,   2,   1,    85.820,     7.140,     0.000,     0.000,     0.000,     0.000,   2,1,0
 28201,'I ',1,   1,   2,    22.800,     7.490,     0.000,     0.000,     0.000,     0.000,   5,0,0
 28204,'LD',1,   1,   1,    11.950,     2.170,     0.000,     0.000,     0.000,     0.000,   2,1,0
 28601,'LD',1,  11,   1,    21.530,     0.090,     0.000,     0.000,     0.000,     0.000,   2,1,0
 28604,'LD',1,  11,   1,    49.010,    -0.980,     0.000,     0.000,     0.000,     0.000,   2,1,0
 28804,'LD',1,   5,   1,    16.130,     3.270,     0.000,     0.000,     0.000,     0.000,   2,1,0
 29304,'I ',1,  11,   2,     9.500,     3.120,     0.000,     0.000,     0.000,     0.000,   5,0,0
 29304,'LD',1,  11,   1,    41.280,     9.780,     0.000,     0.000,     0.000,     0.000,   2,1,0
 29304,'MI',0,  11,   2,     6.250,     0.880,     0.000,     0.000,     0.000,     0.000,   5,0,0
 29401,'LD',1,  11,   1,    20.940,     6.090,     0.000,     0.000,     0.000,     0.000,   2,1,0
 29501,'LD',1,  11,   1,    10.860,     0.490,     0.000,     0.000,     0.000,     0.000,   2,1,0
 30804,'LD',1,  11,   1,    62.780,    -0.590,     0.000,     0.000,     0.000,     0.000,   2,1,0
 31004,'LD',1,   8,   1,    29.040,     4.020,     0.000,     0.000,     0.000,     0.000,   2,1,0
 32201,'LD',1,  10,   1,    16.480,     0.380,     0.000,     0.000,     0.000,     0.000,   2,1,0
 32204,'LD',1,  10,   1,    73.810,     1.970,     0.000,     0.000,     0.000,     0.000,   2,1,0
 32291,'LD',1,  10,   1,     5.430,     1.090,     0.000,     0.000,     0.000,     0.000,   2,1,0
 32302,'I ',1,  11,   2,    35.640,     5.080,     0.000,     0.000,     0.000,     0.000,   5,0,0
 32302,'MI',0,  11,   2,     8.320,     1.180,     0.000,     0.000,     0.000,     0.000,   5,0,0
 32404,'LD',1,  11,   1,    38.300,     5.010,     0.000,     0.000,     0.000,     0.000,   2,1,0
 32604,'LD',1,   9,   1,    57.670,     6.940,     0.000,     0.000,     0.000,     0.000,   2,1,0
 32702,'I ',1,  11,   2,    21.780,     3.100,     0.000,     0.000,     0.000,     0.000,   5,0,0
 32702,'MI',0,  11,   2,    25.740,     3.670,     0.000,     0.000,     0.000,     0.000,   5,0,0
 33004,'LD',1,   5,   1,    46.420,     5.390,     0.000,     0.000,     0.000,     0.000,   2,1,0
 33201,'I ',1,   7,   2,    23.660,    10.990,     0.000,     0.000,     0.000,     0.000,   5,0,0
 33201,'MI',0,   7,   2,     4.550,     1.810,     0.000,     0.000,     0.000,     0.000,   5,0,0
 33502,'I ',1,  11,   2,   116.850,    38.410,     0.000,     0.000,     0.000,     0.000,   5,0,0
 33502,'MI',0,  11,   2,    77.900,    25.600,     0.000,     0.000,     0.000,     0.000,   5,0,0
 33801,'I ',1,  11,   2,    10.190,     2.440,     0.000,     0.000,     0.000,     0.000,   5,0,0
 33801,'MI',0,  11,   2,     1.530,     1.560,     0.000,     0.000,     0.000,     0.000,   5,0,0
 34001,'LD',1,  12,   1,    11.970,     1.970,     0.000,     0.000,     0.000,     0.000,   2,1,0
 34301,'I ',1,  11,   2,    35.000,     5.620,     0.000,     0.000,     0.000,     0.000,   5,0,0
 34301,'MI',0,  11,   2,     8.430,     1.450,     0.000,     0.000,     0.000,     0.000,   5,0,0
 35004,'LD',1,   3,   1,    20.060,     1.770,     0.000,     0.000,     0.000,     0.000,   2,1,0
 35404,'I ',1,   5,   2,    11.680,     3.840,     0.000,     0.000,     0.000,     0.000,   5,0,0
 35404,'LD',1,   5,   1,    90.710,     6.540,     0.000,     0.000,     0.000,     0.000,   2,1,0
 35604,'LD',1,   7,   1,    39.150,     8.160,     0.000,     0.000,     0.000,     0.000,   2,1,0
 35804,'LD',1,   1,   1,    74.240,     8.140,     0.000,     0.000,     0.000,     0.000,   2,1,0
 36001,'LD',1,  10,   1,    26.070,     1.840,     0.000,     0.000,     0.000,     0.000,   2,1,0
 36503,'I ',1,  11,   2,    66.000,     0.000,     0.000,     0.000,     0.000,     0.000,   5,0,0
 36503,'MI',0,  11,   2,    64.000,     0.000,     0.000,     0.000,     0.000,     0.000,   5,0,0
 36802,'I ',1,  11,   2,    35.890,     2.790,     0.000,     0.000,     0.000,     0.000,   5,0,0
 36802,'MI',0,  11,   2,    43.870,     3.400,     0.000,     0.000,     0.000,     0.000,   5,0,0
 37501,'LD',1,  11,   1,    20.650,    -0.450,     0.000,     0.000,     0.000,     0.000,   2,1,0
 37601,'LD',1,  11,   1,    23.140,    -0.170,     0.000,     0.000,     0.000,     0.000,   2,1,0
 37602,'I ',1,  11,   2,     4.580,     0.550,     0.000,     0.000,     0.000,     0.000,   5,0,0
 37602,'MI',0,  11,   2,     5.860,     2.450,     0.000,     0.000,     0.000,     0.000,   5,0,0
 38001,'LD',1,  10,   1,    16.920,     1.380,     0.000,     0.000,     0.000,     0.000,   2,1,0
 38004,'LD',1,  10,   1,    31.330,     3.760,     0.000,     0.000,     0.000,     0.000,   2,1,0
 38204,'LD',1,   7,   1,    58.660,    11.410,     0.000,     0.000,     0.000,     0.000,   2,1,0
 38601,'LD',1,  11,   1,     9.330,    -0.230,     0.000,     0.000,     0.000,     0.000,   2,1,0
 38701,'LD',1,  11,   1,    13.950,    -0.330,     0.000,     0.000,     0.000,     0.000,   2,1,0
 38804,'LD',1,   6,   1,    20.640,    11.830,     0.000,     0.000,     0.000,     0.000,   2,1,0
 39104,'I ',1,  11,   2,    23.750,     7.810,     0.000,     0.000,     0.000,     0.000,   5,0,0
 39204,'I ',1,  11,   2,    29.450,     9.680,     0.000,     0.000,     0.000,     0.000,   5,0,0
 39601,'LD',1,  10,   1,    21.730,     0.900,     0.000,     0.000,     0.000,     0.000,   2,1,0
 39801,'I ',1,   5,   2,    21.500,    12.100,     0.000,     0.000,     0.000,     0.000,   5,0,0
 40001,'LD',1,   3,   1,    16.960,     0.590,     0.000,     0.000,     0.000,     0.000,   2,1,0
 40004,'LD',1,   3,   1,    38.440,     4.330,     0.000,     0.000,     0.000,     0.000,   2,1,0
 40102,'I ',1,  11,   2,    58.410,     8.320,     0.000,     0.000,     0.000,     0.000,   5,0,0
 40102,'MI',0,  11,   2,   129.690,    18.480,     0.000,     0.000,     0.000,     0.000,   5,0,0
 40204,'LD',1,   5,   1,    26.350,     3.160,     0.000,     0.000,     0.000,     0.000,   2,1,0
 40404,'LD',1,   2,   1,    30.200,     1.540,     0.000,     0.000,     0.000,     0.000,   2,1,0
 40602,'I ',1,   7,   2,     4.460,     1.330,     0.000,     0.000,     0.000,     0.000,   5,0,0
 40602,'LD',1,   7,   1,     3.750,    -0.430,     0.000,     0.000,     0.000,     0.000,   2,1,0
 40602,'MI',0,   7,   2,     0.830,     0.170,     0.000,     0.000,     0.000,     0.000,   5,0,0
 40801,'LD',1,  11,   1,    21.490,     2.880,     0.000,     0.000,     0.000,     0.000,   2,1,0
 41002,'I ',1,  11,   2,    32.000,     6.210,     0.000,     0.000,     0.000,     0.000,   5,0,0
 41002,'MI',0,  11,   2,    12.140,     2.520,     0.000,     0.000,     0.000,     0.000,   5,0,0
 41102,'I ',1,  11,   2,    43.000,     7.170,     0.000,     0.000,     0.000,     0.000,   5,0,0
 41102,'MI',0,  11,   2,    20.100,     3.500,     0.000,     0.000,     0.000,     0.000,   5,0,0
 42004,'LD',1,  11,   1,    52.190,     5.570,     0.000,     0.000,     0.000,     0.000,   2,1,0
 42101,'LD',1,  11,   1,    24.500,    -0.540,     0.000,     0.000,     0.000,     0.000,   2,1,0
 42204,'LD',1,   7,   1,    75.290,     9.330,     0.000,     0.000,     0.000,     0.000,   2,1,0
 42604,'LD',1,   8,   1,    27.950,     5.360,     0.000,     0.000,     0.000,     0.000,   2,1,0
 42802,'I ',1,  11,   2,    11.110,     2.630,     0.000,     0.000,     0.000,     0.000,   5,0,0
 42802,'MI',0,  11,   2,    14.890,     5.370,     0.000,     0.000,     0.000,     0.000,   5,0,0
 43604,'LD',1,   5,   1,    29.210,     0.580,     0.000,     0.000,     0.000,     0.000,   2,1,0
 44001,'LD',1,  11,   1,    31.850,     0.990,     0.000,     0.000,     0.000,     0.000,   2,1,0
 44804,'LD',1,  11,   1,    49.260,     2.990,     0.000,     0.000,     0.000,     0.000,   2,1,0
 44901,'LD',1,  11,   1,    15.930,    -0.540,     0.000,     0.000,     0.000,     0.000,   2,1,0
 45001,'I ',1,   7,   2,    18.000,     5.900,     0.000,     0.000,     0.000,     0.000,   5,0,0
 45001,'MI',0,   7,   2,    29.500,     4.100,     0.000,     0.000,     0.000,     0.000,   5,0,0
 45101,'LD',1,  11,   1,    17.900,     0.770,     0.000,     0.000,     0.000,     0.000,   2,1,0
 46210,'I ',1,  11,   2,    34.840,    14.000,     0.000,     0.000,     0.000,     0.000,   5,0,0
 46214,'I ',1,  11,   2,    34.840,    14.000,     0.000,     0.000,     0.000,     0.000,   5,0,0
 46224,'I ',1,  11,   2,    34.840,    14.000,     0.000,     0.000,     0.000,     0.000,   5,0,0
 46501,'LD',1,  11,   1,    12.820,     3.550,     0.000,     0.000,     0.000,     0.000,   2,1,0
...
0 / END OF LOAD DATA, BEGIN FIXED SHUNT DATA
  3934,'1 ',1,     0.000,     6.000
  3944,'1 ',1,     0.000,     6.000
  3954,'1 ',1,     0.000,     6.000
 13124,'1 ',1,     0.000,    10.000
 27361,'1 ',1,     0.000,     1.200
 33902,'1 ',1,     0.000,     6.000
 54630,'1 ',1,     0.000,   105.000
 54640,'1 ',1,     0.000,    41.000
0 / END OF FIXED SHUNT DATA, BEGIN GENERATOR DATA
  1243,'1 ',   665.000,     0.000,    25.000,  -325.000,1.05000,  3202,   790.000, 0.00000E+0, 9.50000E-1, 0.00000E+0, 0.00000E+0,1.00000,0,  100.0,   700.000,  -700.000,  49,1.0000
 10271,'1 ',    21.000,    -1.981,    15.000,    -7.000,1.05000,  1021,    34.000, 0.00000E+0, 2.20000E-1, 0.00000E+0, 0.00000E+0,1.00000,1,   15.0,    21.000,     5.000,  13,1.0000
 10272,'2 ',    22.000,    -1.981,    15.000,    -7.000,1.05000,  1021,    34.000, 0.00000E+0, 2.20000E-1, 0.00000E+0, 0.00000E+0,1.00000,1,   15.0,    22.000,     5.000,  13,1.0000
 10273,'3 ',    19.000,    -1.981,    15.000,    -7.000,1.05000,  1021,    34.000, 0.00000E+0, 2.20000E-1, 0.00000E+0, 0.00000E+0,1.00000,1,   15.0,    19.000,     5.000,  13,1.0000
 10274,'4 ',    24.000,    -1.981,    15.000,    -7.000,1.05000,  1021,    34.000, 0.00000E+0, 2.20000E-1, 0.00000E+0, 0.00000E+0,1.00000,1,   15.0,    24.000,     5.000,  13,1.0000
 10275,'3 ',     0.750,    -0.152,    -0.152,    -0.152,1.05000,     0,     8.350, 9.20000E-3, 2.00000E-1, 0.00000E+0, 0.00000E+0,1.00000,1,  100.0,     7.500,     0.000,  21,1.0000,    ,      ,    ,      ,    ,      ,3,-0.9800
 10276,'2 ',     0.066,    -0.013,    -0.013,    -0.013,1.05000,     0,     0.850, 7.30000E-3, 2.00000E-1, 0.00000E+0, 0.00000E+0,1.00000,1,  100.0,     0.660,     0.000,  21,1.0000,    ,      ,    ,      ,    ,      ,3,-0.9800
 10277,'1 ',     0.400,    -0.081,    -0.081,    -0.081,1.00000,     0,     4.800, 0.00000E+0, 8.33000E-1, 0.00000E+0, 6.00000E-2,1.00000,1,  100.0,     4.000,     0.000,  23,1.0000,    ,      ,    ,      ,    ,      ,3,-0.9800
 10371,'1 ',    11.500,     5.975,    38.000,   -38.000,1.05000,  1031,   115.000, 2.20000E-3, 8.33000E-1, 0.00000E+0, 0.00000E+0,1.00000,1,  100.0,   115.000,     0.000,  17,1.0000,    ,      ,    ,      ,    ,      ,1, 1.0000
 10401,'1 ',    18.050,     0.000,     0.000,     0.000,1.00000,     0,    20.000, 4.00000E-3, 8.33000E-1, 0.00000E+0, 0.00000E+0,1.00000,0,  100.0,    19.000,   -19.000,  14,1.0000,    ,      ,    ,      ,    ,      ,3,-0.9800
 10470,'1 ',   449.000,   119.116,   270.000,  -170.000,1.06000,  1042,   500.000, 2.70000E-3, 1.80000E-1, 0.00000E+0, 0.00000E+0,1.00000,1,  270.0,   456.690,   222.000,   9,1.0000
 10471,'1 ',   151.050,     0.000,    40.000,   -30.000,1.06000,  1042,   167.000, 0.00000E+0, 8.33000E-1, 0.00000E+0, 0.00000E+0,1.00000,0,  100.0,   159.000,  -159.000,  14,1.0000,    ,      ,    ,      ,    ,      ,1, 1.0000
 10472,'11',    85.500,     0.000,    60.000,   -30.000,1.06000,  1042,   100.900, 0.00000E+0, 1.25000E-1, 0.00000E+0, 0.00000E+0,1.00000,0,   60.0,    90.000,    13.000,   9,1.0000
 10473,'12',    85.500,     0.000,    60.000,   -30.000,1.06000,  1042,   100.900, 0.00000E+0, 1.25000E-1, 0.00000E+0, 0.00000E+0,1.00000,0,   60.0,    90.000,    13.000,   9,1.0000
 10474,'14',    85.500,     0.000,    60.000,   -30.000,1.06000,  1042,   100.900, 0.00000E+0, 1.25000E-1, 0.00000E+0, 0.00000E+0,1.00000,0,   60.0,    90.000,    13.000,   9,1.0000
 10671,'2 ',     0.480,    -0.097,    -0.097,    -0.097,1.04000,     0,     4.800, 2.04000E-2, 1.66000E-1, 0.00000E+0, 0.00000E+0,1.00000,1,  100.0,     4.800,     0.000,  20,1.0000,    ,      ,    ,      ,    ,      ,3,-0.9800
 10672,'3 ',     0.500,    -0.102,    -0.102,    -0.102,1.04000,     0,     6.000, 2.04000E-2, 1.66000E-1, 0.00000E+0, 0.00000E+0,1.00000,1,  100.0,     5.000,     0.000,  20,1.0000,    ,      ,    ,      ,    ,      ,3,-0.9800
 10673,'1 ',     0.120,    -0.024,    -0.024,    -0.024,1.05000,     0,     1.200, 2.04000E-2, 1.66000E-1, 0.00000E+0, 0.00000E+0,1.00000,1,  100.0,     1.200,     0.000,  20,1.0000,    ,      ,    ,      ,    ,      ,3,-0.9800
 10674,'5 ',     0.460,    -0.093,    -0.093,    -0.093,1.04000,     0,     4.600, 2.57000E-2, 1.66000E-1, 0.00000E+0, 0.00000E+0,1.00000,1,  100.0,     4.600,     0.000,  20,1.0000,    ,      ,    ,      ,    ,      ,3,-0.9800
 10811,'1 ',     0.400,    -0.081,    -0.081,    -0.081,1.00000,     0,     4.000, 9.00000E-3, 8.33000E-1, 0.00000E+0, 0.00000E+0,1.00000,1,  100.0,     4.000,     0.000,  23,1.0000,    ,      ,    ,      ,    ,      ,3,-0.9800
 10872,'1 ',     0.400,    -0.081,    -0.081,    -0.081,1.00000,     0,     4.000, 9.00000E-3, 8.33000E-1, 0.00000E+0, 0.00000E+0,1.00000,1,  100.0,     4.000,     0.000,  23,1.0000,    ,      ,    ,      ,    ,      ,3,-0.9800
 11204,'1 ',     0.950,     0.000,    -0.810,    -0.810,1.00000,     0,     1.600, 0.00000E+0, 2.00000E-1, 1.00000E-2, 6.00000E-2,1.00000,0,  100.0,     1.000,     0.000,  15,1.0000
 11262,'1 ',    80.000,     0.000,   200.000,  -100.000,1.05000,  1122,   800.000, 3.20000E-3, 8.33000E-1, 0.00000E+0, 1.00000E-1,1.00000,1,  100.0,   800.000,     0.000,  16,1.0000,    ,      ,    ,      ,    ,      ,1, 1.0000
 11271,'1 ',     2.520,    -0.512,    -0.512,    -0.512,1.04000,     0,    28.000, 3.20000E-3, 2.00000E-1, 0.00000E+0, 0.00000E+0,1.00000,1,  100.0,    25.200,     0.000,  20,1.0000,    ,      ,    ,      ,    ,      ,3,-0.9800
 11272,'1 ',     0.400,    -0.081,    -0.081,    -0.081,1.00000,     0,     4.170, 2.54000E-1, 8.33000E-1, 0.00000E+0, 0.00000E+0,1.00000,1,  100.0,     4.000,     0.000,  23,1.0000,    ,      ,    ,      ,    ,      ,3,-0.9800
 11273,'1 ',     3.999,    -0.812,    -0.812,    -0.812,1.00000,     0,    42.000, 2.00000E-3, 8.33000E-1, 0.00000E+0, 0.00000E+0,1.00000,1,  100.0,    39.990,     0.000,  19,1.0000,    ,      ,    ,      ,    ,      ,3,-0.9800
 11274,'1 ',     1.000,    -0.203,    -0.203,    -0.203,1.00000,     0,    10.000, 3.00000E-4, 8.33000E-1, 0.00000E+0, 0.00000E+0,1.00000,1,  100.0,    10.000,     0.000,  23,1.0000,    ,      ,    ,      ,    ,      ,3,-0.9800
 11275,'1 ',     2.200,     1.484,     7.300,    -7.300,1.05000,     0,    25.050, 9.20000E-3, 8.33000E-1, 0.00000E+0, 6.00000E-2,1.00000,1,    7.0,    22.000,     0.000,  23,1.0000,    ,      ,    ,      ,    ,      ,1, 1.0000
 11303,'1 ',    10.450,     0.000,    10.000,    -8.000,1.05000,  1131,    12.000, 3.20000E-3, 8.33000E-1, 0.00000E+0, 1.00000E-1,1.00000,0,    6.0,    11.000,   -11.000,  14,1.0000,    ,      ,    ,      ,    ,      ,1, 1.0000
 11371,'1 ',     3.435,    -7.955,    13.000,   -18.000,1.05000,  1131,    34.350, 7.10000E-3, 2.00000E-1, 0.00000E+0, 0.00000E+0,1.00000,1,   11.0,    34.350,     0.000,  17,1.0000,    ,      ,    ,      ,    ,      ,1, 1.0000
 11372,'1 ',     2.315,    -4.339,     6.155,    -6.155,1.05000,  1131,    23.150, 3.20000E-3, 2.00000E-1, 0.00000E+0, 0.00000E+0,1.00000,1,    6.0,    23.150,     0.000,  17,1.0000,    ,      ,    ,      ,    ,      ,1, 1.0000
 11412,'1 ',     0.400,    -0.081,    -0.081,    -0.081,1.00000,     0,     4.000, 2.52000E-2, 8.33000E-1, 0.00000E+0, 0.00000E+0,1.00000,1,  100.0,     4.000,     0.000,  23,1.0000,    ,      ,    ,      ,    ,      ,3,-0.9800
 11424,'1 ',     0.400,    -0.081,    -0.081,    -0.081,1.00000,     0,     4.000, 2.52000E-2, 8.33000E-1, 0.00000E+0, 0.00000E+0,1.00000,1,  100.0,     4.000,     0.000,  23,1.0000,    ,      ,    ,      ,    ,      ,3,-0.9800
 11471,'1 ',     0.090,    -0.018,    -0.018,    -0.018,1.00000,     0,     1.000, 3.20000E-3, 8.33000E-1, 0.00000E+0, 6.00000E-2,1.00000,1,  100.0,     0.900,     0.000,  19,1.0000,    ,      ,    ,      ,    ,      ,3,-0.9800
 11474,'1 ',     0.500,    -0.102,    -0.102,    -0.102,1.00000,     0,     5.000, 1.52000E-3, 8.33000E-1, 0.00000E+0, 0.00000E+0,1.00000,1,  100.0,     5.000,     0.000,  20,1.0000,    ,      ,    ,      ,    ,      ,3,-0.9800
 11571,'1 ',     5.000,     0.000,    20.000,     0.000,1.00000,     0,    50.000, 3.20000E-3, 8.33000E-1, 0.00000E+0, 0.00000E+0,1.00000,1,  100.0,    50.000,     0.000,  23,1.0000,    ,      ,    ,      ,    ,      ,1, 1.0000
 12101,'XX',     0.000,     0.000,   100.000,  -100.000,1.05000,  1211,   100.000, 0.00000E+0, 8.33000E-1, 0.00000E+0, 0.00000E+0,1.00000,0,  100.0,     0.000,     0.000,  25,1.0000,    ,      ,    ,      ,    ,      ,1, 1.0000
 12171,'1 ',    76.000,     0.000,    25.000,   -25.000,1.03000,     0,    80.000, 0.00000E+0, 8.33000E-1, 0.00000E+0, 0.00000E+0,1.00000,0,  100.0,    80.000,   -80.000,   1,1.0000,    ,      ,    ,      ,    ,      ,1, 1.0000
 12271,'1 ',     0.499,    -0.101,    -0.101,    -0.101,1.00000,     0,     4.990, 2.00000E-1, 8.33000E-1, 0.00000E+0, 0.00000E+0,1.00000,1,  100.0,     4.990,     0.000,  23,1.0000,    ,      ,    ,      ,    ,      ,3,-0.9800
 12371,'1 ',     3.150,     7.000,     7.000,    -7.000,1.05000,  1231,    32.000, 2.57000E-2, 8.33000E-1, 0.00000E+0, 0.00000E+0,1.00000,1,    7.0,    31.500,     0.000,  17,1.0000,    ,      ,    ,      ,    ,      ,1, 1.0000
 12372,'2 ',     1.050,     3.000,     3.000,    -3.000,1.05000,  1231,    10.500, 2.57000E-2, 8.33000E-1, 0.00000E+0, 0.00000E+0,1.00000,1,  100.0,    10.500,     0.000,  17,1.0000,    ,      ,    ,      ,    ,      ,1, 1.0000
 12571,'1 ',     1.945,     0.000,     0.000,     0.000,1.05000,  1251,    21.710, 9.20000E-3, 2.00000E-1, 0.00000E+0, 0.00000E+0,1.00000,1,  100.0,    19.450,     0.000,  17,1.0000,    ,      ,    ,      ,    ,      ,1, 1.0000
 12572,'1 ',     1.200,    -0.244,    -0.244,    -0.244,1.05000,  1251,    12.000, 2.52000E-2, 8.33000E-1, 0.00000E+0, 0.00000E+0,1.00000,1,  100.0,    12.000,     0.000,  17,1.0000,    ,      ,    ,      ,    ,      ,3,-0.9800
 12574,'1 ',     1.340,    -0.272,    -0.272,    -0.272,1.05000,     0,    14.000, 3.20000E-3, 8.33000E-1, 0.00000E+0, 0.00000E+0,1.00000,1,  100.0,    13.399,     0.000,  17,1.0000,    ,      ,    ,      ,    ,      ,3,-0.9800
 12575,'1 ',     1.500,    -0.305,    -0.305,    -0.305,1.05000,  1251,    15.100, 3.20000E-3, 8.33000E-1, 0.00000E+0, 0.00000E+0,1.00000,1,  100.0,    15.000,     0.000,  20,1.0000,    ,      ,    ,      ,    ,      ,3,-0.9800
 12576,'1 ',     1.020,    -0.207,    -0.207,    -0.207,1.00000,     0,    10.200, 3.20000E-3, 8.33000E-1, 0.00000E+0, 0.00000E+0,1.00000,1,  100.0,    10.200,     0.000,  20,1.0000,    ,      ,    ,      ,    ,      ,3,-0.9800
 12577,'1 ',     0.420,    -0.085,    -0.085,    -0.085,1.00000,     0,     5.000, 3.20000E-3, 8.33000E-1, 0.00000E+0, 0.00000E+0,1.00000,1,  100.0,     4.200,     0.000,  17,1.0000,    ,      ,    ,      ,    ,      ,3,-0.9800
 12602,'1 ',    95.000,     0.000,    33.000,   -33.000,1.00000,     0,   100.000, 4.20000E-3, 1.30600E-1, 0.00000E+0, 0.00000E+0,1.00000,0,  100.0,   100.000,     0.000,   9,1.0000
 12771,'1 ',     1.000,    -0.203,    -0.203,    -0.203,1.00000,     0,    10.000, 8.80000E-3, 8.33000E-1, 0.00000E+0, 0.00000E+0,1.00000,1,  100.0,    10.000,     0.000,  23,1.0000,    ,      ,    ,      ,    ,      ,3,-0.9800
 12772,'1 ',     0.714,    -0.145,    -0.145,    -0.145,1.00000,     0,    10.000, 8.80000E-3, 8.33000E-1, 0.00000E+0, 0.00000E+0,1.00000,1,  100.0,     7.140,     0.000,  23,1.0000,    ,      ,    ,      ,    ,      ,3,-0.9800
 12872,'DW',     0.840,    -0.171,    -0.171,    -0.171,1.05000,     0,     9.200, 2.57000E-2, 2.00000E-1, 0.00000E+0, 0.00000E+0,1.00000,1,  100.0,     8.400,     0.000,  20,1.0000,    ,      ,    ,      ,    ,      ,3,-0.9800
 12873,'1 ',     1.955,    -0.397,    -0.397,    -0.397,1.05000,     0,    20.700, 2.57000E-2, 2.00000E-1, 0.00000E+0, 0.00000E+0,1.00000,1,  100.0,    19.550,     0.000,  20,1.0000,    ,      ,    ,      ,    ,      ,3,-0.9800
 12874,'1 ',     0.850,    -0.173,    -0.173,    -0.173,1.05000,     0,     8.500, 2.10000E-3, 1.66000E-1, 0.00000E+0, 0.00000E+0,1.00000,1,  100.0,     8.500,     0.000,  20,1.0000,    ,      ,    ,      ,    ,      ,3,-0.9800
 13011,'1 ',     0.800,    -0.162,    -0.162,    -0.162,1.00000,     0,     8.500, 2.00000E-2, 8.33000E-1, 0.00000E+0, 0.00000E+0,1.00000,1,  100.0,     8.000,     0.000,  23,1.0000,    ,      ,    ,      ,    ,      ,3,-0.9800
 13072,'1 ',     0.990,    -0.201,    -0.201,    -0.201,1.00000,     0,    10.000, 3.00000E-4, 8.33000E-1, 0.00000E+0, 0.00000E+0,1.00000,1,  100.0,     9.900,     0.000,  23,1.0000,    ,      ,    ,      ,    ,      ,3,-0.9800
 13170,'1 ',     3.545,    -1.034,     1.034,    -1.034,1.05000,     0,    35.500, 2.57000E-2, 8.33000E-1, 0.00000E+0, 0.00000E+0,1.00000,1,  100.0,    35.450,     0.000,  19,1.0000,    ,      ,    ,      ,    ,      ,2, 0.9600
 13171,'1 ',     1.850,    -0.376,    -0.376,    -0.376,1.05000,     0,    18.800, 9.00000E-3, 2.00000E-1, 0.00000E+0, 0.00000E+0,1.00000,1,  100.0,    18.500,     0.000,  20,1.0000,    ,      ,    ,      ,    ,      ,3,-0.9800
 13172,'1 ',     0.380,    -0.077,    -0.077,    -0.077,1.05000,     0,     4.000, 3.20000E-3, 8.33000E-1, 0.00000E+0, 0.00000E+0,1.00000,1,  100.0,     3.800,     0.000,  19,1.0000,    ,      ,    ,      ,    ,      ,3,-0.9800
 13271,'1 ',     4.749,     0.000,     0.000,     0.000,1.00000,     0,     5.000, 0.00000E+0, 1.54000E-1, 0.00000E+0, 0.00000E+0,1.00000,0,  100.0,     4.999,     2.000,  15,1.0000,    ,      ,    ,      ,    ,      ,3,-0.9800
 13371,'1 ',     6.000,    20.000,    20.000,   -20.000,1.06000,  1331,    61.000, 8.80000E-3, 8.33000E-1, 0.00000E+0, 0.00000E+0,1.00000,1,   30.0,    60.000,     0.000,  23,1.0000,    ,      ,    ,      ,    ,      ,1, 1.0000
 13434,'10',     4.085,     0.000,     0.000,     0.000,1.00000,     0,     4.500, 0.00000E+0, 2.00000E-1, 0.00000E+0, 1.00000E-1,1.00000,0,  100.0,     4.300,     0.000,  13,1.0000,    ,      ,    ,      ,    ,      ,3,-0.9800
 13471,'1 ',     0.066,    -0.013,    -0.013,    -0.013,1.05000,     0,     0.660, 2.04000E-2, 2.00000E-1, 0.00000E+0, 0.00000E+0,1.00000,1,  100.0,     0.660,     0.000,  22,1.0000,    ,      ,    ,      ,    ,      ,3,-0.9800
 13472,'DW',     0.255,    -0.052,    -0.052,    -0.052,1.05000,     0,     2.700, 3.02000E-2, 8.33000E-1, 0.00000E+0, 0.00000E+0,1.00000,1,  100.0,     2.550,     0.000,  21,1.0000,    ,      ,    ,      ,    ,      ,3,-0.9800
 13473,'4 ',     1.000,    -0.203,    -0.203,    -0.203,1.05000,     0,    15.100, 3.20000E-3, 2.00000E-1, 0.00000E+0, 0.00000E+0,1.00000,1,  100.0,     9.990,     0.000,  20,1.0000,    ,      ,    ,      ,    ,      ,3,-0.9800
 13474,'1 ',     0.600,    -0.122,    -0.122,    -0.122,1.05000,     0,     6.900, 2.57000E-2, 8.33000E-1, 0.00000E+0, 0.00000E+0,1.00000,1,  100.0,     6.000,     0.000,  18,1.0000,    ,      ,    ,      ,    ,      ,3,-0.9800
 13475,'6 ',     0.765,    -0.155,    -0.155,    -0.155,1.05000,  1701,     7.680, 3.20000E-3, 2.00000E-1, 0.00000E+0, 0.00000E+0,1.00000,1,  100.0,     7.650,     0.000,  21,1.0000,    ,      ,    ,      ,    ,      ,3,-0.9800
 13476,'3 ',     1.190,    -0.242,    -0.242,    -0.242,1.05000,     0,    12.000, 2.57000E-2, 8.33000E-1, 0.00000E+0, 0.00000E+0,1.00000,1,  100.0,    11.900,     0.000,  21,1.0000,    ,      ,    ,      ,    ,      ,3,-0.9800
 13477,'2 ',     0.255,    -0.052,    -0.052,    -0.052,1.05000,     0,     2.700, 3.02000E-2, 8.33000E-1, 0.00000E+0, 0.00000E+0,1.00000,1,  100.0,     2.550,     0.000,  21,1.0000,    ,      ,    ,      ,    ,      ,3,-0.9800
 13478,'1 ',     0.300,    -0.061,    -0.061,    -0.061,1.00000,     0,     3.000, 3.20000E-3, 8.33000E-1, 0.00000E+0, 0.00000E+0,1.00000,1,  100.0,     3.000,     0.000,  20,1.0000,    ,      ,    ,      ,    ,      ,3,-0.9800
 13479,'9 ',     0.340,    -0.069,    -0.069,    -0.069,1.00000,     0,     3.400, 7.30000E-3, 8.33000E-1, 0.00000E+0, 0.00000E+0,1.00000,1,  100.0,     3.400,     0.000,  20,1.0000,    ,      ,    ,      ,    ,      ,3,-0.9800
 13671,'1 ',     0.580,    -0.118,    -0.118,    -0.118,1.00000,     0,     5.800, 2.00000E-1, 8.33000E-1, 0.00000E+0, 0.00000E+0,1.00000,1,  100.0,     5.800,     0.000,  23,1.0000,    ,      ,    ,      ,    ,      ,3,-0.9800
 13871,'1 ',     0.495,    -0.101,    -0.101,    -0.101,1.00000,     0,     5.000, 8.80000E-3, 8.33000E-1, 0.00000E+0, 0.00000E+0,1.00000,1,  100.0,     4.950,     0.000,  23,1.0000,    ,      ,    ,      ,    ,      ,3,-0.9800
 13872,'1 ',     0.200,    -0.041,    -0.041,    -0.041,1.00000,     0,     2.000, 1.00000E-4, 8.33000E-1, 0.00000E+0, 0.00000E+0,1.00000,1,  100.0,     2.000,     0.000,  21,1.0000,    ,      ,    ,      ,    ,      ,3,-0.9800
 13873,'1 ',     0.250,    -0.051,    -0.051,    -0.051,1.00000,     0,     2.500, 1.00000E-4, 8.33000E-1, 0.00000E+0, 0.00000E+0,1.00000,1,  100.0,     2.500,     0.000,  23,1.0000,    ,      ,    ,      ,    ,      ,3,-0.9800
 13904,'1 ',    55.000,   -10.000,    17.000,   -10.000,1.00000,     0,    57.000, 1.87000E-3, 1.87000E-1, 0.00000E+0, 0.00000E+0,1.00000,1,  100.0,    55.000,     0.000,   9,1.0000
 13904,'2 ',    55.000,   -10.000,    17.000,   -10.000,1.00000,     0,    57.000, 1.87000E-3, 1.87000E-1, 0.00000E+0, 0.00000E+0,1.00000,1,  100.0,    55.000,     0.000,   9,1.0000
 13914,'1 ',    55.000,   -10.000,    17.000,   -10.000,1.00000,     0,    57.000, 1.87000E-3, 1.80700E-1, 0.00000E+0, 0.00000E+0,1.00000,1,  100.0,    55.000,     0.000,   9,1.0000
 13914,'2 ',    55.000,   -10.000,    17.000,   -10.000,1.00000,     0,    57.000, 1.87000E-3, 1.80700E-1, 0.00000E+0, 0.00000E+0,1.00000,1,  100.0,    55.000,     0.000,   9,1.0000
 13914,'3 ',    55.000,   -10.000,    17.000,   -10.000,1.00000,     0,    57.000, 1.87000E-3, 1.80700E-1, 0.00000E+0, 0.00000E+0,1.00000,1,  100.0,    55.000,     0.000,   9,1.0000
 14073,'3 ',     0.645,    -0.131,    -0.131,    -0.131,1.04000,     0,     7.611, 2.04000E-2, 1.66000E-1, 0.00000E+0, 0.00000E+0,1.00000,1,  100.0,     6.450,     0.000,  20,1.0000,    ,      ,    ,      ,    ,      ,3,-0.9800
 14075,'OC',     9.500,     0.000,     0.000,     0.000,1.00000,     0,    10.000, 0.00000E+0, 1.55000E-1, 0.00000E+0, 0.00000E+0,1.00000,0,  100.0,    10.000,     1.000,  26,1.0000,    ,      ,    ,      ,    ,      ,3,-0.9800
 14078,'1 ',     0.250,    -0.051,    -0.051,    -0.051,1.00000,     0,     2.600, 3.20000E-3, 8.33000E-1, 0.00000E+0, 6.00000E-2,1.00000,1,  100.0,     2.500,     0.000,  19,1.0000,    ,      ,    ,      ,    ,      ,3,-0.9800
 14078,'2 ',     0.130,    -0.026,    -0.026,    -0.026,1.00000,     0,     1.300, 3.20000E-3, 8.33000E-1, 0.00000E+0, 6.00000E-2,1.00000,1,  100.0,     1.300,     0.000,  19,1.0000,    ,      ,    ,      ,    ,      ,3,-0.9800
 14078,'3 ',     0.119,    -0.024,    -0.024,    -0.024,1.00000,     0,     1.300, 3.20000E-3, 8.33000E-1, 0.00000E+0, 6.00000E-2,1.00000,1,  100.0,     1.190,     0.000,  19,1.0000,    ,      ,    ,      ,    ,      ,3,-0.9800
 14304,'1 ',     7.125,     0.000,     1.730,    -1.730,1.05000,     0,     8.500, 0.00000E+0, 1.50000E-1, 0.00000E+0, 1.00000E-1,1.00000,0,  100.0,     7.500,     2.000,  15,1.0000,    ,      ,    ,      ,    ,      ,3,-0.9800
 14371,'1 ',     0.499,     0.000,     0.000,     0.000,1.00000,     0,     5.000, 8.40000E-3, 8.33000E-1, 0.00000E+0, 0.00000E+0,1.00000,1,  100.0,     4.990,     0.000,  23,1.0000
 14372,'1 ',     3.500,    -0.711,    -0.711,    -0.711,1.00000,     0,    36.000, 2.52000E-2, 8.33000E-1, 0.00000E+0, 0.00000E+0,1.00000,1,  100.0,    35.000,     0.000,  23,1.0000,    ,      ,    ,      ,    ,      ,3,-0.9800
 14373,'1 ',     4.500,    -0.914,    -0.914,    -0.914,1.05000,     0,    46.875, 9.00000E-3, 8.33000E-1, 0.00000E+0, 6.00000E-2,1.00000,1,  100.0,    45.000,     0.000,  19,1.0000,    ,      ,    ,      ,    ,      ,3,-0.9800
 14424,'1 ',     0.495,    -0.101,    -0.101,    -0.101,1.00000,     0,     5.000, 3.20000E-3, 8.33000E-1, 0.00000E+0, 0.00000E+0,1.00000,1,  100.0,     4.950,     0.000,  23,1.0000,    ,      ,    ,      ,    ,      ,3,-0.9800
 14424,'2 ',     0.495,    -0.101,    -0.101,    -0.101,1.00000,     0,     5.000, 3.20000E-3, 8.33000E-1, 0.00000E+0, 0.00000E+0,1.00000,1,  100.0,     4.950,     0.000,  23,1.0000,    ,      ,    ,      ,    ,      ,3,-0.9800
...